@<TRIPOS>MOLECULE
*****
 114 112 0 0 0
SMALL
GASTEIGER

@<TRIPOS>ATOM
      1 N           5.4210    0.2770   11.7290 N.3     1  LIG1       -0.1298
      2 C           4.2280   -0.1620   10.9540 C.3     1  LIG1        0.1280
      3 C           3.8710    0.7500    9.8400 C.3     1  LIG1        0.1092
      4 N           4.5860    0.7080    8.6990 N.3     1  LIG1       -0.2150
      5 C           4.1040    1.5330    7.6250 C.3     1  LIG1        0.1075
      6 C           3.3070    0.5930    6.7470 C.3     1  LIG1        0.1075
      7 N           2.0270    0.6570    7.0320 N.3     1  LIG1       -0.2150
      8 C           0.9600   -0.0660    6.3800 C.3     1  LIG1        0.1075
      9 C          -0.2520    0.7780    6.5730 C.3     1  LIG1        0.1075
     10 N          -1.2240    0.6350    5.7390 N.3     1  LIG1       -0.2150
     11 C          -2.4290    1.3850    5.9330 C.3     1  LIG1        0.1075
     12 C          -3.5870    0.4570    5.6640 C.3     1  LIG1        0.1075
     13 N          -4.7150    0.5930    6.3660 N.3     1  LIG1       -0.2150
     14 C          -5.7850   -0.3320    6.0710 C.3     1  LIG1        0.1075
     15 C          -6.5070    0.1620    4.8350 C.3     1  LIG1        0.1075
     16 N          -6.2960   -0.5810    3.7610 N.3     1  LIG1       -0.2150
     17 C          -6.9020   -0.3030    2.4840 C.3     1  LIG1        0.1075
     18 C          -7.2840   -1.6270    1.8280 C.3     1  LIG1        0.1075
     19 N          -8.3800   -1.6550    1.0860 N.3     1  LIG1       -0.2150
     20 C          -8.7750   -2.8850    0.4200 C.3     1  LIG1        0.1075
     21 C          -7.9140   -3.0450   -0.8260 C.3     1  LIG1        0.1075
     22 N          -7.0650   -4.0740   -0.8360 N.3     1  LIG1       -0.2150
     23 C          -6.1730   -4.3000   -1.9690 C.3     1  LIG1        0.1075
     24 C          -6.3090   -5.7030   -2.5230 C.3     1  LIG1        0.1075
     25 N          -5.9370   -5.8030   -3.7740 N.3     1  LIG1       -0.2150
     26 C          -5.9220   -7.0390   -4.5010 C.3     1  LIG1        0.1075
     27 C          -4.7050   -6.9660   -5.4000 C.3     1  LIG1        0.1075
     28 N          -3.8220   -7.9410   -5.3200 N.3     1  LIG1       -0.2150
     29 C          -2.6080   -7.8530   -6.1000 C.3     1  LIG1        0.1075
     30 C          -1.7560   -6.6790   -5.6350 C.3     1  LIG1        0.1075
     31 N          -0.5110   -6.6210   -6.0790 N.3     1  LIG1       -0.2150
     32 C           0.4050   -5.5510   -5.6770 C.3     1  LIG1        0.1075
     33 C           0.0060   -4.1450   -6.1770 C.3     1  LIG1        0.1075
     34 N          -0.3710   -3.9880   -7.4570 N.3     1  LIG1       -0.2150
     35 C          -0.7140   -2.6800   -8.0350 C.3     1  LIG1        0.1075
     36 C          -1.9320   -1.9950   -7.4360 C.3     1  LIG1        0.1075
     37 N          -2.8680   -2.7660   -6.8930 N.3     1  LIG1       -0.2150
     38 C          -4.0540   -2.1720   -6.2900 C.3     1  LIG1        0.1075
     39 C          -3.6620   -1.3400   -5.0770 C.3     1  LIG1        0.1075
     40 N          -2.5910   -1.7550   -4.3920 N.3     1  LIG1       -0.2150
     41 C          -2.0780   -1.0120   -3.2390 C.3     1  LIG1        0.1075
     42 C          -1.1770    0.1240   -3.7320 C.3     1  LIG1        0.1075
     43 N          -0.6310   -0.0300   -4.9400 N.3     1  LIG1       -0.2150
     44 C           0.1870    1.0220   -5.5310 C.3     1  LIG1        0.1075
     45 C          -0.6430    2.3020   -5.6970 C.3     1  LIG1        0.1075
     46 N          -1.9470    2.1410   -5.9560 N.3     1  LIG1       -0.2150
     47 C          -2.8340    3.2890   -6.1490 C.3     1  LIG1        0.1075
     48 C          -3.0330    4.1010   -4.8630 C.3     1  LIG1        0.1075
     49 N          -3.4440    3.4720   -3.7400 N.3     1  LIG1       -0.2150
     50 C          -3.6140    4.2040   -2.4790 C.3     1  LIG1        0.1075
     51 C          -2.3230    4.9330   -2.0710 C.3     1  LIG1        0.1075
     52 N          -1.1800    4.2850   -2.2930 N.3     1  LIG1       -0.2150
     53 C           0.1010    4.8940   -1.9500 C.3     1  LIG1        0.1075
     54 C           0.4400    6.0290   -2.9200 C.3     1  LIG1        0.1075
     55 N          -0.1130    5.9720   -4.1360 N.3     1  LIG1       -0.2150
     56 C           0.1300    7.0150   -5.1330 C.3     1  LIG1        0.1075
     57 C          -0.3460    8.3650   -4.6120 C.3     1  LIG1        0.1075
     58 N          -1.5810    8.3990   -4.1180 N.3     1  LIG1       -0.2150
     59 C          -2.1450    9.6230   -3.5700 C.3     1  LIG1        0.1075
     60 C          -1.4570    9.9890   -2.2560 C.3     1  LIG1        0.1075
     61 N          -0.8270    9.0010   -1.6050 N.3     1  LIG1       -0.2150
     62 C          -0.1270    9.2630   -0.3480 C.3     1  LIG1        0.1075
     63 C           1.2390    9.9390   -0.5700 C.3     1  LIG1        0.1075
     64 N           1.6690   10.0630   -1.8290 N.3     1  LIG1       -0.2150
     65 C           2.9330   10.7280   -2.1250 C.3     1  LIG1        0.1075
     66 C           4.1760    9.9370   -1.7340 C.3     1  LIG1        0.1075
     67 N           4.0320    8.6330   -1.5140 N.3     1  LIG1       -0.2150
     68 C           5.1730    7.7950   -1.1360 C.3     1  LIG1        0.1075
     69 C           5.5800    6.8640   -2.2820 C.3     1  LIG1        0.1075
     70 N           6.6110    6.0450   -2.0520 N.3     1  LIG1       -0.2150
     71 C           7.0940    5.1110   -3.0730 C.3     1  LIG1        0.1075
     72 C           7.1570    3.6710   -2.5410 C.3     1  LIG1        0.1075
     73 N           7.0110    2.6990   -3.4490 N.3     1  LIG1       -0.2150
     74 C           7.0620    1.2690   -3.1040 C.3     1  LIG1        0.1075
     75 C           6.0140    0.8790   -2.0530 C.3     1  LIG1        0.1075
     76 N           5.5800   -0.3910   -2.1000 N.3     1  LIG1       -0.2150
     77 C           4.5840   -0.8880   -1.1530 C.3     1  LIG1        0.1075
     78 C           4.3440   -2.3920   -1.2700 C.3     1  LIG1        0.1075
     79 N           3.3150   -2.8900   -0.5700 N.3     1  LIG1       -0.2150
     80 C           2.9720   -4.3190   -0.5930 C.3     1  LIG1        0.1075
     81 C           1.4720   -4.5280   -0.3180 C.3     1  LIG1        0.1075
     82 N           1.0560   -5.7820   -0.0910 N.3     1  LIG1       -0.2150
     83 C          -0.3610   -6.0820    0.1660 C.3     1  LIG1        0.1075
     84 C          -0.5560   -7.0080    1.3770 C.3     1  LIG1        0.1075
     85 N          -1.8270   -7.2410    1.7260 N.3     1  LIG1       -0.2150
     86 C          -2.1940   -8.1140    2.8460 C.3     1  LIG1        0.1075
     87 C          -3.6510   -8.5740    2.7170 C.3     1  LIG1        0.1075
     88 N          -3.9750   -9.7300    3.3230 N.3     1  LIG1       -0.2150
     89 C          -5.3320  -10.3150    3.2780 C.3     1  LIG1        0.1075
     90 C          -6.4380   -9.2520    3.3080 C.3     1  LIG1        0.1075
     91 N          -6.2060   -8.1760    4.0550 N.3     1  LIG1       -0.2150
     92 C          -7.1740   -7.0830    4.1470 C.3     1  LIG1        0.1075
     93 C          -6.4870   -5.7560    4.5280 C.3     1  LIG1        0.1075
     94 N          -5.1680   -5.6690    4.3020 N.3     1  LIG1       -0.2150
     95 C          -4.3900   -4.4670    4.6480 C.3     1  LIG1        0.1075
     96 C          -3.3810   -4.0900    3.5480 C.3     1  LIG1        0.1075
     97 N          -2.9090   -2.8350    3.5800 N.3     1  LIG1       -0.2150
     98 C          -1.9380   -2.3300    2.5930 C.3     1  LIG1        0.1075
     99 C          -0.5630   -2.1100    3.2380 C.3     1  LIG1        0.1075
    100 N           0.4810   -2.0680    2.4120 N.3     1  LIG1       -0.2150
    101 C           1.8360   -1.8020    2.8940 C.3     1  LIG1        0.1075
    102 C           2.4690   -0.6370    2.1130 C.3     1  LIG1        0.1075
    103 N           2.9030    0.4200    2.8140 N.3     1  LIG1       -0.2150
    104 C           3.5490    1.5610    2.1470 C.3     1  LIG1        0.1075
    105 C           4.9610    1.7740    2.7100 C.3     1  LIG1        0.1075
    106 N           5.9040    2.2230    1.8720 N.3     1  LIG1       -0.2150
    107 C           7.2790    2.4520    2.3360 C.3     1  LIG1        0.1075
    108 C           7.7440    3.8970    2.0850 C.3     1  LIG1        0.1075
    109 N           7.8330    4.7360    3.1460 N.3     1  LIG1       -0.2150
    110 C           8.2740    6.1330    3.0220 C.3     1  LIG1        0.1075
    111 C           9.7930    6.2700    2.8390 C.3     1  LIG1        0.1075
    112 N          10.2350    7.3690    2.2100 N.3     1  LIG1       -0.2150
    113 C          11.6720    7.6130    1.9840 C.3     1  LIG1        0.1075
    114 C          12.4870    7.4070    3.2630 C.3     2  LIG2        0.0000
@<TRIPOS>BOND
     1     1     2    1
     2     2     3    1
     3     3     4    1
     4     4     5    1
     5     5     6    1
     6     6     7    1
     7     7     8    1
     8     8     9    1
     9     9    10    1
    10    10    11    1
    11    11    12    1
    12    12    13    1
    13    13    14    1
    14    14    15    1
    15    15    16    1
    16    16    17    1
    17    17    18    1
    18    18    19    1
    19    19    20    1
    20    20    21    1
    21    21    22    1
    22    22    23    1
    23    23    24    1
    24    24    25    1
    25    25    26    1
    26    26    27    1
    27    27    28    1
    28    28    29    1
    29    29    30    1
    30    30    31    1
    31    31    32    1
    32    32    33    1
    33    33    34    1
    34    34    35    1
    35    35    36    1
    36    36    37    1
    37    37    38    1
    38    38    39    1
    39    39    40    1
    40    40    41    1
    41    41    42    1
    42    42    43    1
    43    43    44    1
    44    44    45    1
    45    45    46    1
    46    46    47    1
    47    47    48    1
    48    48    49    1
    49    49    50    1
    50    50    51    1
    51    51    52    1
    52    52    53    1
    53    53    54    1
    54    54    55    1
    55    55    56    1
    56    56    57    1
    57    57    58    1
    58    58    59    1
    59    59    60    1
    60    60    61    1
    61    61    62    1
    62    62    63    1
    63    63    64    1
    64    64    65    1
    65    65    66    1
    66    66    67    1
    67    67    68    1
    68    68    69    1
    69    69    70    1
    70    70    71    1
    71    71    72    1
    72    72    73    1
    73    73    74    1
    74    74    75    1
    75    75    76    1
    76    76    77    1
    77    77    78    1
    78    78    79    1
    79    79    80    1
    80    80    81    1
    81    81    82    1
    82    82    83    1
    83    83    84    1
    84    84    85    1
    85    85    86    1
    86    86    87    1
    87    87    88    1
    88    88    89    1
    89    89    90    1
    90    90    91    1
    91    91    92    1
    92    92    93    1
    93    93    94    1
    94    94    95    1
    95    95    96    1
    96    96    97    1
    97    97    98    1
    98    98    99    1
    99    99   100    1
   100   100   101    1
   101   101   102    1
   102   102   103    1
   103   103   104    1
   104   104   105    1
   105   105   106    1
   106   106   107    1
   107   107   108    1
   108   108   109    1
   109   109   110    1
   110   110   111    1
   111   111   112    1
   112   112   113    1
